160

C    -1.0470000000E+00   1.8150000000E+00  -3.6890000000E+00
C    -4.7400000000E-01   5.2700000000E-01  -3.6890000000E+00
C    -4.7400000000E-01   4.5110000000E+00  -3.6890000000E+00
C     5.7300000000E-01   5.4540000000E+00  -3.6890000000E+00
C     1.9140000000E+00  -8.5200000000E-01  -3.6890000000E+00
C     3.3150000000E+00  -7.0500000000E-01  -3.6890000000E+00
C     3.3150000000E+00   5.7430000000E+00  -3.6890000000E+00
C     4.5360000000E+00   5.0380000000E+00  -3.6890000000E+00
C     5.3640000000E+00   1.1410000000E+00  -3.6890000000E+00
C     5.6580000000E+00   2.5190000000E+00  -3.6890000000E+00
C    -1.1220000000E+00   2.5190000000E+00  -2.4600000000E+00
C    -8.2800000000E-01   3.8970000000E+00  -2.4600000000E+00
C     0.0000000000E+00   0.0000000000E+00  -2.4600000000E+00
C     1.2210000000E+00  -7.0500000000E-01  -2.4600000000E+00
C     1.2210000000E+00   5.7430000000E+00  -2.4600000000E+00
C     2.6220000000E+00   5.8900000000E+00  -2.4600000000E+00
C     3.9620000000E+00  -4.1600000000E-01  -2.4600000000E+00
C     5.0100000000E+00   5.2700000000E-01  -2.4600000000E+00
C     5.0100000000E+00   4.5110000000E+00  -2.4600000000E+00
C     5.5830000000E+00   3.2230000000E+00  -2.4600000000E+00
C    -1.0470000000E+00   1.8150000000E+00  -1.2290000000E+00
C    -4.7400000000E-01   5.2700000000E-01  -1.2290000000E+00
C    -4.7400000000E-01   4.5110000000E+00  -1.2290000000E+00
C     5.7300000000E-01   5.4540000000E+00  -1.2290000000E+00
C     1.9140000000E+00  -8.5200000000E-01  -1.2290000000E+00
C     3.3150000000E+00  -7.0500000000E-01  -1.2290000000E+00
C     3.3150000000E+00   5.7430000000E+00  -1.2290000000E+00
C     4.5360000000E+00   5.0380000000E+00  -1.2290000000E+00
C     5.3640000000E+00   1.1410000000E+00  -1.2290000000E+00
C     5.6580000000E+00   2.5190000000E+00  -1.2290000000E+00
C    -1.1220000000E+00   2.5190000000E+00   0.0000000000E+00
C    -8.2800000000E-01   3.8970000000E+00   0.0000000000E+00
C     0.0000000000E+00   0.0000000000E+00   0.0000000000E+00
C     1.2210000000E+00  -7.0500000000E-01   0.0000000000E+00
C     1.2210000000E+00   5.7430000000E+00   0.0000000000E+00
C     2.6220000000E+00   5.8900000000E+00   0.0000000000E+00
C     3.9620000000E+00  -4.1600000000E-01   0.0000000000E+00
C     5.0100000000E+00   5.2700000000E-01   0.0000000000E+00
C     5.0100000000E+00   4.5110000000E+00   0.0000000000E+00
C     5.5830000000E+00   3.2230000000E+00   0.0000000000E+00
C    -1.0470000000E+00   1.8150000000E+00   1.2310000000E+00
C    -4.7400000000E-01   5.2700000000E-01   1.2310000000E+00
C    -4.7400000000E-01   4.5110000000E+00   1.2310000000E+00
C     5.7300000000E-01   5.4540000000E+00   1.2310000000E+00
C     1.9140000000E+00  -8.5200000000E-01   1.2310000000E+00
C     3.3150000000E+00  -7.0500000000E-01   1.2310000000E+00
C     3.3150000000E+00   5.7430000000E+00   1.2310000000E+00
C     4.5360000000E+00   5.0380000000E+00   1.2310000000E+00
C     5.3640000000E+00   1.1410000000E+00   1.2310000000E+00
C     5.6580000000E+00   2.5190000000E+00   1.2310000000E+00
C    -1.1220000000E+00   2.5190000000E+00   2.4600000000E+00
C    -8.2800000000E-01   3.8970000000E+00   2.4600000000E+00
C     0.0000000000E+00   0.0000000000E+00   2.4600000000E+00
C     1.2210000000E+00  -7.0500000000E-01   2.4600000000E+00
C     1.2210000000E+00   5.7430000000E+00   2.4600000000E+00
C     2.6220000000E+00   5.8900000000E+00   2.4600000000E+00
C     3.9620000000E+00  -4.1600000000E-01   2.4600000000E+00
C     5.0100000000E+00   5.2700000000E-01   2.4600000000E+00
C     5.0100000000E+00   4.5110000000E+00   2.4600000000E+00
C     5.5830000000E+00   3.2230000000E+00   2.4600000000E+00
C    -1.0470000000E+00   1.8150000000E+00   3.6910000000E+00
C    -4.7400000000E-01   5.2700000000E-01   3.6910000000E+00
C    -4.7400000000E-01   4.5110000000E+00   3.6910000000E+00
C     5.7300000000E-01   5.4540000000E+00   3.6910000000E+00
C     1.9140000000E+00  -8.5200000000E-01   3.6910000000E+00
C     3.3150000000E+00  -7.0500000000E-01   3.6910000000E+00
C     3.3150000000E+00   5.7430000000E+00   3.6910000000E+00
C     4.5360000000E+00   5.0380000000E+00   3.6910000000E+00
C     5.3640000000E+00   1.1410000000E+00   3.6910000000E+00
C     5.6580000000E+00   2.5190000000E+00   3.6910000000E+00
C    -1.1220000000E+00   2.5190000000E+00   4.9200000000E+00
C    -8.2800000000E-01   3.8970000000E+00   4.9200000000E+00
C     0.0000000000E+00   0.0000000000E+00   4.9200000000E+00
C     1.2210000000E+00  -7.0500000000E-01   4.9200000000E+00
C     1.2210000000E+00   5.7430000000E+00   4.9200000000E+00
C     2.6220000000E+00   5.8900000000E+00   4.9200000000E+00
C     3.9620000000E+00  -4.1600000000E-01   4.9200000000E+00
C     5.0100000000E+00   5.2700000000E-01   4.9200000000E+00
C     5.0100000000E+00   4.5110000000E+00   4.9200000000E+00
C     5.5830000000E+00   3.2230000000E+00   4.9200000000E+00
C    -1.0470000000E+00   1.8150000000E+00   6.1510000000E+00
C    -4.7400000000E-01   5.2700000000E-01   6.1510000000E+00
C    -4.7400000000E-01   4.5110000000E+00   6.1510000000E+00
C     5.7300000000E-01   5.4540000000E+00   6.1510000000E+00
C     1.9140000000E+00  -8.5200000000E-01   6.1510000000E+00
C     3.3150000000E+00  -7.0500000000E-01   6.1510000000E+00
C     3.3150000000E+00   5.7430000000E+00   6.1510000000E+00
C     4.5360000000E+00   5.0380000000E+00   6.1510000000E+00
C     5.3640000000E+00   1.1410000000E+00   6.1510000000E+00
C     5.6580000000E+00   2.5190000000E+00   6.1510000000E+00
C    -1.1220000000E+00   2.5190000000E+00   7.3800000000E+00
C    -8.2800000000E-01   3.8970000000E+00   7.3800000000E+00
C     0.0000000000E+00   0.0000000000E+00   7.3800000000E+00
C     1.2210000000E+00  -7.0500000000E-01   7.3800000000E+00
C     1.2210000000E+00   5.7430000000E+00   7.3800000000E+00
C     2.6220000000E+00   5.8900000000E+00   7.3800000000E+00
C     3.9620000000E+00  -4.1600000000E-01   7.3800000000E+00
C     5.0100000000E+00   5.2700000000E-01   7.3800000000E+00
C     5.0100000000E+00   4.5110000000E+00   7.3800000000E+00
C     5.5830000000E+00   3.2230000000E+00   7.3800000000E+00
C    -1.0470000000E+00   1.8150000000E+00   8.6110000000E+00
C    -4.7400000000E-01   5.2700000000E-01   8.6110000000E+00
C    -4.7400000000E-01   4.5110000000E+00   8.6110000000E+00
C     5.7300000000E-01   5.4540000000E+00   8.6110000000E+00
C     1.9140000000E+00  -8.5200000000E-01   8.6110000000E+00
C     3.3150000000E+00  -7.0500000000E-01   8.6110000000E+00
C     3.3150000000E+00   5.7430000000E+00   8.6110000000E+00
C     4.5360000000E+00   5.0380000000E+00   8.6110000000E+00
C     5.3640000000E+00   1.1410000000E+00   8.6110000000E+00
C     5.6580000000E+00   2.5190000000E+00   8.6110000000E+00
C    -1.1220000000E+00   2.5190000000E+00   9.8400000000E+00
C    -8.2800000000E-01   3.8970000000E+00   9.8400000000E+00
C     0.0000000000E+00   0.0000000000E+00   9.8400000000E+00
C     1.2210000000E+00  -7.0500000000E-01   9.8400000000E+00
C     1.2210000000E+00   5.7430000000E+00   9.8400000000E+00
C     2.6220000000E+00   5.8900000000E+00   9.8400000000E+00
C     3.9620000000E+00  -4.1600000000E-01   9.8400000000E+00
C     5.0100000000E+00   5.2700000000E-01   9.8400000000E+00
C     5.0100000000E+00   4.5110000000E+00   9.8400000000E+00
C     5.5830000000E+00   3.2230000000E+00   9.8400000000E+00
C    -1.0470000000E+00   1.8150000000E+00  -6.1490000000E+00
C    -4.7400000000E-01   5.2700000000E-01  -6.1490000000E+00
C    -4.7400000000E-01   4.5110000000E+00  -6.1490000000E+00
C     5.7300000000E-01   5.4540000000E+00  -6.1490000000E+00
C     1.9140000000E+00  -8.5200000000E-01  -6.1490000000E+00
C     3.3150000000E+00  -7.0500000000E-01  -6.1490000000E+00
C     3.3150000000E+00   5.7430000000E+00  -6.1490000000E+00
C     4.5360000000E+00   5.0380000000E+00  -6.1490000000E+00
C     5.3640000000E+00   1.1410000000E+00  -6.1490000000E+00
C     5.6580000000E+00   2.5190000000E+00  -6.1490000000E+00
C    -1.1220000000E+00   2.5190000000E+00  -4.9200000000E+00
C    -8.2800000000E-01   3.8970000000E+00  -4.9200000000E+00
C     0.0000000000E+00   0.0000000000E+00  -4.9200000000E+00
C     1.2210000000E+00  -7.0500000000E-01  -4.9200000000E+00
C     1.2210000000E+00   5.7430000000E+00  -4.9200000000E+00
C     2.6220000000E+00   5.8900000000E+00  -4.9200000000E+00
C     3.9620000000E+00  -4.1600000000E-01  -4.9200000000E+00
C     5.0100000000E+00   5.2700000000E-01  -4.9200000000E+00
C     5.0100000000E+00   4.5110000000E+00  -4.9200000000E+00
C     5.5830000000E+00   3.2230000000E+00  -4.9200000000E+00
C    -1.0470000000E+00   1.8150000000E+00  -8.6090000000E+00
C    -4.7400000000E-01   5.2700000000E-01  -8.6090000000E+00
C    -4.7400000000E-01   4.5110000000E+00  -8.6090000000E+00
C     5.7300000000E-01   5.4540000000E+00  -8.6090000000E+00
C     1.9140000000E+00  -8.5200000000E-01  -8.6090000000E+00
C     3.3150000000E+00  -7.0500000000E-01  -8.6090000000E+00
C     3.3150000000E+00   5.7430000000E+00  -8.6090000000E+00
C     4.5360000000E+00   5.0380000000E+00  -8.6090000000E+00
C     5.3640000000E+00   1.1410000000E+00  -8.6090000000E+00
C     5.6580000000E+00   2.5190000000E+00  -8.6090000000E+00
C    -1.1220000000E+00   2.5190000000E+00  -7.3800000000E+00
C    -8.2800000000E-01   3.8970000000E+00  -7.3800000000E+00
C     0.0000000000E+00   0.0000000000E+00  -7.3800000000E+00
C     1.2210000000E+00  -7.0500000000E-01  -7.3800000000E+00
C     1.2210000000E+00   5.7430000000E+00  -7.3800000000E+00
C     2.6220000000E+00   5.8900000000E+00  -7.3800000000E+00
C     3.9620000000E+00  -4.1600000000E-01  -7.3800000000E+00
C     5.0100000000E+00   5.2700000000E-01  -7.3800000000E+00
C     5.0100000000E+00   4.5110000000E+00  -7.3800000000E+00
C     5.5830000000E+00   3.2230000000E+00  -7.3800000000E+00
