407

C     3.7831463060E+01  -2.0000000000E+01   7.1000000000E-01
C     3.9061219140E+01  -2.0000000000E+01   1.4200000000E+00
C     3.9061219140E+01  -2.0000000000E+01   2.8400000000E+00
C     3.7831463060E+01  -2.0000000000E+01   3.5500000000E+00
C     3.5371950920E+01  -2.0000000000E+01   7.1000000000E-01
C     3.6601706990E+01  -2.0000000000E+01   1.4200000000E+00
C     3.6601706990E+01  -2.0000000000E+01   2.8400000000E+00
C     3.5371950920E+01  -2.0000000000E+01   3.5500000000E+00
C     3.2912438770E+01  -2.0000000000E+01   7.1000000000E-01
C     3.4142194840E+01  -2.0000000000E+01   1.4200000000E+00
C     3.4142194840E+01  -2.0000000000E+01   2.8400000000E+00
C     3.2912438770E+01  -2.0000000000E+01   3.5500000000E+00
C     3.0452926620E+01  -2.0000000000E+01   7.1000000000E-01
C     3.1682682700E+01  -2.0000000000E+01   1.4200000000E+00
C     3.1682682700E+01  -2.0000000000E+01   2.8400000000E+00
C     3.0452926620E+01  -2.0000000000E+01   3.5500000000E+00
C     2.7993414480E+01  -2.0000000000E+01   7.1000000000E-01
C     2.9223170550E+01  -2.0000000000E+01   1.4200000000E+00
C     2.9223170550E+01  -2.0000000000E+01   2.8400000000E+00
C     2.7993414480E+01  -2.0000000000E+01   3.5500000000E+00
C     2.5533902330E+01  -2.0000000000E+01   7.1000000000E-01
C     2.6763658400E+01  -2.0000000000E+01   1.4200000000E+00
C     2.6763658400E+01  -2.0000000000E+01   2.8400000000E+00
C     2.5533902330E+01  -2.0000000000E+01   3.5500000000E+00
C     2.3074390180E+01  -2.0000000000E+01   7.1000000000E-01
C     2.4304146260E+01  -2.0000000000E+01   1.4200000000E+00
C     2.4304146260E+01  -2.0000000000E+01   2.8400000000E+00
C     2.3074390180E+01  -2.0000000000E+01   3.5500000000E+00
C     2.1844634110E+01  -2.0000000000E+01   1.4200000000E+00
C     2.1844634110E+01  -2.0000000000E+01   2.8400000000E+00
H     2.0880312110E+01  -2.0000000000E+01   9.0916987730E-01
H     2.0880312110E+01  -2.0000000000E+01   3.3508301230E+00
H     4.0025607920E+01  -2.0000000000E+01   9.0910626430E-01
H     4.0025607920E+01  -2.0000000000E+01   3.3508937360E+00
C     3.7831463060E+01  -2.0000000000E+01   4.9700000000E+00
C     3.9061219140E+01  -2.0000000000E+01   5.6800000000E+00
C     3.9061219140E+01  -2.0000000000E+01   7.1000000000E+00
C     3.7831463060E+01  -2.0000000000E+01   7.8100000000E+00
C     3.5371950920E+01  -2.0000000000E+01   4.9700000000E+00
C     3.6601706990E+01  -2.0000000000E+01   5.6800000000E+00
C     3.6601706990E+01  -2.0000000000E+01   7.1000000000E+00
C     3.5371950920E+01  -2.0000000000E+01   7.8100000000E+00
C     3.2912438770E+01  -2.0000000000E+01   4.9700000000E+00
C     3.4142194840E+01  -2.0000000000E+01   5.6800000000E+00
C     3.4142194840E+01  -2.0000000000E+01   7.1000000000E+00
C     3.2912438770E+01  -2.0000000000E+01   7.8100000000E+00
C     3.0452926620E+01  -2.0000000000E+01   4.9700000000E+00
C     3.1682682700E+01  -2.0000000000E+01   7.1000000000E+00
C     3.0452926620E+01  -2.0000000000E+01   7.8100000000E+00
C     2.7993414480E+01  -2.0000000000E+01   4.9700000000E+00
C     2.9223170550E+01  -2.0000000000E+01   5.6800000000E+00
C     2.9223170550E+01  -2.0000000000E+01   7.1000000000E+00
C     2.7993414480E+01  -2.0000000000E+01   7.8100000000E+00
C     2.5533902330E+01  -2.0000000000E+01   4.9700000000E+00
C     2.6763658400E+01  -2.0000000000E+01   5.6800000000E+00
C     2.6763658400E+01  -2.0000000000E+01   7.1000000000E+00
C     2.5533902330E+01  -2.0000000000E+01   7.8100000000E+00
C     2.3074390180E+01  -2.0000000000E+01   4.9700000000E+00
C     2.4304146260E+01  -2.0000000000E+01   5.6800000000E+00
C     2.4304146260E+01  -2.0000000000E+01   7.1000000000E+00
C     2.3074390180E+01  -2.0000000000E+01   7.8100000000E+00
C     2.1844634110E+01  -2.0000000000E+01   5.6800000000E+00
C     2.1844634110E+01  -2.0000000000E+01   7.1000000000E+00
H     2.0880312110E+01  -2.0000000000E+01   5.1691698773E+00
H     2.0880312110E+01  -2.0000000000E+01   7.6108301230E+00
H     4.0025607920E+01  -2.0000000000E+01   5.1691062643E+00
H     4.0025607920E+01  -2.0000000000E+01   7.6108937360E+00
C     3.7831463060E+01  -2.0000000000E+01   9.2300000000E+00
C     3.9061219140E+01  -2.0000000000E+01   9.9400000000E+00
C     3.9061219140E+01  -2.0000000000E+01   1.1360000000E+01
C     3.7831463060E+01  -2.0000000000E+01   1.2070000000E+01
C     3.5371950920E+01  -2.0000000000E+01   9.2300000000E+00
C     3.6601706990E+01  -2.0000000000E+01   9.9400000000E+00
C     3.6601706990E+01  -2.0000000000E+01   1.1360000000E+01
C     3.5371950920E+01  -2.0000000000E+01   1.2070000000E+01
C     3.2912438770E+01  -2.0000000000E+01   9.2300000000E+00
C     3.4142194840E+01  -2.0000000000E+01   9.9400000000E+00
C     3.4142194840E+01  -2.0000000000E+01   1.1360000000E+01
C     3.2912438770E+01  -2.0000000000E+01   1.2070000000E+01
C     3.0452926620E+01  -2.0000000000E+01   9.2300000000E+00
C     3.1682682700E+01  -2.0000000000E+01   9.9400000000E+00
C     3.1682682700E+01  -2.0000000000E+01   1.1360000000E+01
C     3.0452926620E+01  -2.0000000000E+01   1.2070000000E+01
C     2.7993414480E+01  -2.0000000000E+01   9.2300000000E+00
C     2.9223170550E+01  -2.0000000000E+01   9.9400000000E+00
C     2.9223170550E+01  -2.0000000000E+01   1.1360000000E+01
C     2.7993414480E+01  -2.0000000000E+01   1.2070000000E+01
C     2.5533902330E+01  -2.0000000000E+01   9.2300000000E+00
C     2.6763658400E+01  -2.0000000000E+01   9.9400000000E+00
C     2.6763658400E+01  -2.0000000000E+01   1.1360000000E+01
C     2.5533902330E+01  -2.0000000000E+01   1.2070000000E+01
C     2.3074390180E+01  -2.0000000000E+01   9.2300000000E+00
C     2.4304146260E+01  -2.0000000000E+01   9.9400000000E+00
C     2.4304146260E+01  -2.0000000000E+01   1.1360000000E+01
C     2.3074390180E+01  -2.0000000000E+01   1.2070000000E+01
C     2.1844634110E+01  -2.0000000000E+01   9.9400000000E+00
C     2.1844634110E+01  -2.0000000000E+01   1.1360000000E+01
H     2.0880312110E+01  -2.0000000000E+01   9.4291698773E+00
H     2.0880312110E+01  -2.0000000000E+01   1.1870830123E+01
H     4.0025607920E+01  -2.0000000000E+01   9.4291062643E+00
H     4.0025607920E+01  -2.0000000000E+01   1.1870893736E+01
C     3.7831463060E+01  -2.0000000000E+01   1.3490000000E+01
C     3.9061219140E+01  -2.0000000000E+01   1.4200000000E+01
C     3.9061219140E+01  -2.0000000000E+01   1.5620000000E+01
C     3.7831463060E+01  -2.0000000000E+01   1.6330000000E+01
C     3.5371950920E+01  -2.0000000000E+01   1.3490000000E+01
C     3.6601706990E+01  -2.0000000000E+01   1.4200000000E+01
C     3.6601706990E+01  -2.0000000000E+01   1.5620000000E+01
C     3.5371950920E+01  -2.0000000000E+01   1.6330000000E+01
C     3.2912438770E+01  -2.0000000000E+01   1.3490000000E+01
C     3.4142194840E+01  -2.0000000000E+01   1.4200000000E+01
C     3.4142194840E+01  -2.0000000000E+01   1.5620000000E+01
C     3.2912438770E+01  -2.0000000000E+01   1.6330000000E+01
C     3.0452926620E+01  -2.0000000000E+01   1.3490000000E+01
C     3.1682682700E+01  -2.0000000000E+01   1.4200000000E+01
C     3.1682682700E+01  -2.0000000000E+01   1.5620000000E+01
C     3.0452926620E+01  -2.0000000000E+01   1.6330000000E+01
C     2.7993414480E+01  -2.0000000000E+01   1.3490000000E+01
C     2.9223170550E+01  -2.0000000000E+01   1.4200000000E+01
C     2.9223170550E+01  -2.0000000000E+01   1.5620000000E+01
C     2.7993414480E+01  -2.0000000000E+01   1.6330000000E+01
C     2.5533902330E+01  -2.0000000000E+01   1.3490000000E+01
C     2.6763658400E+01  -2.0000000000E+01   1.4200000000E+01
C     2.6763658400E+01  -2.0000000000E+01   1.5620000000E+01
C     2.5533902330E+01  -2.0000000000E+01   1.6330000000E+01
C     2.3074390180E+01  -2.0000000000E+01   1.3490000000E+01
C     2.4304146260E+01  -2.0000000000E+01   1.4200000000E+01
C     2.4304146260E+01  -2.0000000000E+01   1.5620000000E+01
C     2.3074390180E+01  -2.0000000000E+01   1.6330000000E+01
C     2.1844634110E+01  -2.0000000000E+01   1.4200000000E+01
C     2.1844634110E+01  -2.0000000000E+01   1.5620000000E+01
H     2.0880312110E+01  -2.0000000000E+01   1.3689169877E+01
H     2.0880312110E+01  -2.0000000000E+01   1.6130830123E+01
H     4.0025607920E+01  -2.0000000000E+01   1.3689106264E+01
H     4.0025607920E+01  -2.0000000000E+01   1.6130893736E+01
C     3.7831463060E+01  -2.0000000000E+01   1.7750000000E+01
C     3.9061219140E+01  -2.0000000000E+01   1.8460000000E+01
C     3.9061219140E+01  -2.0000000000E+01   1.9880000000E+01
C     3.7831463060E+01  -2.0000000000E+01   2.0590000000E+01
C     3.5371950920E+01  -2.0000000000E+01   1.7750000000E+01
C     3.6601706990E+01  -2.0000000000E+01   1.8460000000E+01
C     3.6601706990E+01  -2.0000000000E+01   1.9880000000E+01
C     3.5371950920E+01  -2.0000000000E+01   2.0590000000E+01
C     3.2912438770E+01  -2.0000000000E+01   1.7750000000E+01
C     3.4142194840E+01  -2.0000000000E+01   1.8460000000E+01
C     3.4142194840E+01  -2.0000000000E+01   1.9880000000E+01
C     3.2912438770E+01  -2.0000000000E+01   2.0590000000E+01
C     3.0452926620E+01  -2.0000000000E+01   1.7750000000E+01
C     3.1682682700E+01  -2.0000000000E+01   1.8460000000E+01
C     3.1682682700E+01  -2.0000000000E+01   1.9880000000E+01
C     3.0452926620E+01  -2.0000000000E+01   2.0590000000E+01
C     2.7993414480E+01  -2.0000000000E+01   1.7750000000E+01
C     2.9223170550E+01  -2.0000000000E+01   1.8460000000E+01
C     2.9223170550E+01  -2.0000000000E+01   1.9880000000E+01
C     2.7993414480E+01  -2.0000000000E+01   2.0590000000E+01
C     2.5533902330E+01  -2.0000000000E+01   1.7750000000E+01
C     2.6763658400E+01  -2.0000000000E+01   1.8460000000E+01
C     2.6763658400E+01  -2.0000000000E+01   1.9880000000E+01
C     2.5533902330E+01  -2.0000000000E+01   2.0590000000E+01
C     2.3074390180E+01  -2.0000000000E+01   1.7750000000E+01
C     2.4304146260E+01  -2.0000000000E+01   1.8460000000E+01
C     2.4304146260E+01  -2.0000000000E+01   1.9880000000E+01
C     2.3074390180E+01  -2.0000000000E+01   2.0590000000E+01
C     2.1844634110E+01  -2.0000000000E+01   1.8460000000E+01
C     2.1844634110E+01  -2.0000000000E+01   1.9880000000E+01
H     2.0880312110E+01  -2.0000000000E+01   1.7949169877E+01
H     2.0880312110E+01  -2.0000000000E+01   2.0390830123E+01
H     4.0025607920E+01  -2.0000000000E+01   1.7949106264E+01
H     4.0025607920E+01  -2.0000000000E+01   2.0390893736E+01
C     3.7831463060E+01  -2.0000000000E+01   2.2010000000E+01
C     3.9061219140E+01  -2.0000000000E+01   2.2720000000E+01
C     3.9061219140E+01  -2.0000000000E+01   2.4140000000E+01
C     3.7831463060E+01  -2.0000000000E+01   2.4850000000E+01
C     3.5371950920E+01  -2.0000000000E+01   2.2010000000E+01
C     3.6601706990E+01  -2.0000000000E+01   2.2720000000E+01
C     3.6601706990E+01  -2.0000000000E+01   2.4140000000E+01
C     3.5371950920E+01  -2.0000000000E+01   2.4850000000E+01
C     3.2912438770E+01  -2.0000000000E+01   2.2010000000E+01
C     3.4142194840E+01  -2.0000000000E+01   2.2720000000E+01
C     3.4142194840E+01  -2.0000000000E+01   2.4140000000E+01
C     3.2912438770E+01  -2.0000000000E+01   2.4850000000E+01
C     3.0452926620E+01  -2.0000000000E+01   2.2010000000E+01
C     3.1682682700E+01  -2.0000000000E+01   2.2720000000E+01
C     3.1682682700E+01  -2.0000000000E+01   2.4140000000E+01
C     3.0452926620E+01  -2.0000000000E+01   2.4850000000E+01
C     2.7993414480E+01  -2.0000000000E+01   2.2010000000E+01
C     2.9223170550E+01  -2.0000000000E+01   2.2720000000E+01
C     2.9223170550E+01  -2.0000000000E+01   2.4140000000E+01
C     2.7993414480E+01  -2.0000000000E+01   2.4850000000E+01
C     2.5533902330E+01  -2.0000000000E+01   2.2010000000E+01
C     2.6763658400E+01  -2.0000000000E+01   2.2720000000E+01
C     2.6763658400E+01  -2.0000000000E+01   2.4140000000E+01
C     2.5533902330E+01  -2.0000000000E+01   2.4850000000E+01
C     2.3074390180E+01  -2.0000000000E+01   2.2010000000E+01
C     2.4304146260E+01  -2.0000000000E+01   2.2720000000E+01
C     2.4304146260E+01  -2.0000000000E+01   2.4140000000E+01
C     2.3074390180E+01  -2.0000000000E+01   2.4850000000E+01
C     2.1844634110E+01  -2.0000000000E+01   2.2720000000E+01
C     2.1844634110E+01  -2.0000000000E+01   2.4140000000E+01
H     2.0880312110E+01  -2.0000000000E+01   2.2209169877E+01
H     2.0880312110E+01  -2.0000000000E+01   2.4650830123E+01
H     4.0025607920E+01  -2.0000000000E+01   2.2209106264E+01
H     4.0025607920E+01  -2.0000000000E+01   2.4650893736E+01
C     3.7831463060E+01  -2.0000000000E+01   2.6270000000E+01
C     3.9061219140E+01  -2.0000000000E+01   2.6980000000E+01
C     3.9061219140E+01  -2.0000000000E+01   2.8400000000E+01
C     3.7831463060E+01  -2.0000000000E+01   2.9110000000E+01
C     3.5371950920E+01  -2.0000000000E+01   2.6270000000E+01
C     3.6601706990E+01  -2.0000000000E+01   2.6980000000E+01
C     3.6601706990E+01  -2.0000000000E+01   2.8400000000E+01
C     3.5371950920E+01  -2.0000000000E+01   2.9110000000E+01
C     3.2912438770E+01  -2.0000000000E+01   2.6270000000E+01
C     3.4142194840E+01  -2.0000000000E+01   2.6980000000E+01
C     3.4142194840E+01  -2.0000000000E+01   2.8400000000E+01
C     3.2912438770E+01  -2.0000000000E+01   2.9110000000E+01
C     3.0452926620E+01  -2.0000000000E+01   2.6270000000E+01
C     3.1682682700E+01  -2.0000000000E+01   2.6980000000E+01
C     3.1682682700E+01  -2.0000000000E+01   2.8400000000E+01
C     3.0452926620E+01  -2.0000000000E+01   2.9110000000E+01
C     2.7993414480E+01  -2.0000000000E+01   2.6270000000E+01
C     2.9223170550E+01  -2.0000000000E+01   2.6980000000E+01
C     2.9223170550E+01  -2.0000000000E+01   2.8400000000E+01
C     2.7993414480E+01  -2.0000000000E+01   2.9110000000E+01
C     2.5533902330E+01  -2.0000000000E+01   2.6270000000E+01
C     2.6763658400E+01  -2.0000000000E+01   2.6980000000E+01
C     2.6763658400E+01  -2.0000000000E+01   2.8400000000E+01
C     2.5533902330E+01  -2.0000000000E+01   2.9110000000E+01
C     2.3074390180E+01  -2.0000000000E+01   2.6270000000E+01
C     2.4304146260E+01  -2.0000000000E+01   2.6980000000E+01
C     2.4304146260E+01  -2.0000000000E+01   2.8400000000E+01
C     2.3074390180E+01  -2.0000000000E+01   2.9110000000E+01
C     2.1844634110E+01  -2.0000000000E+01   2.6980000000E+01
C     2.1844634110E+01  -2.0000000000E+01   2.8400000000E+01
H     2.0880312110E+01  -2.0000000000E+01   2.6469169877E+01
H     2.0880312110E+01  -2.0000000000E+01   2.8910830123E+01
H     4.0025607920E+01  -2.0000000000E+01   2.6469106264E+01
H     4.0025607920E+01  -2.0000000000E+01   2.8910893736E+01
C     3.7831463060E+01  -2.0000000000E+01   3.0530000000E+01
C     3.9061219140E+01  -2.0000000000E+01   3.1240000000E+01
C     3.9061219140E+01  -2.0000000000E+01   3.2660000000E+01
C     3.7831463060E+01  -2.0000000000E+01   3.3370000000E+01
C     3.5371950920E+01  -2.0000000000E+01   3.0530000000E+01
C     3.6601706990E+01  -2.0000000000E+01   3.1240000000E+01
C     3.6601706990E+01  -2.0000000000E+01   3.2660000000E+01
C     3.5371950920E+01  -2.0000000000E+01   3.3370000000E+01
C     3.2912438770E+01  -2.0000000000E+01   3.0530000000E+01
C     3.4142194840E+01  -2.0000000000E+01   3.1240000000E+01
C     3.4142194840E+01  -2.0000000000E+01   3.2660000000E+01
C     3.2912438770E+01  -2.0000000000E+01   3.3370000000E+01
C     3.0452926620E+01  -2.0000000000E+01   3.0530000000E+01
C     3.1682682700E+01  -2.0000000000E+01   3.1240000000E+01
C     3.1682682700E+01  -2.0000000000E+01   3.2660000000E+01
C     3.0452926620E+01  -2.0000000000E+01   3.3370000000E+01
C     2.7993414480E+01  -2.0000000000E+01   3.0530000000E+01
C     2.9223170550E+01  -2.0000000000E+01   3.1240000000E+01
C     2.9223170550E+01  -2.0000000000E+01   3.2660000000E+01
C     2.7993414480E+01  -2.0000000000E+01   3.3370000000E+01
C     2.5533902330E+01  -2.0000000000E+01   3.0530000000E+01
C     2.6763658400E+01  -2.0000000000E+01   3.1240000000E+01
C     2.6763658400E+01  -2.0000000000E+01   3.2660000000E+01
C     2.5533902330E+01  -2.0000000000E+01   3.3370000000E+01
C     2.3074390180E+01  -2.0000000000E+01   3.0530000000E+01
C     2.4304146260E+01  -2.0000000000E+01   3.1240000000E+01
C     2.4304146260E+01  -2.0000000000E+01   3.2660000000E+01
C     2.3074390180E+01  -2.0000000000E+01   3.3370000000E+01
C     2.1844634110E+01  -2.0000000000E+01   3.1240000000E+01
C     2.1844634110E+01  -2.0000000000E+01   3.2660000000E+01
H     2.0880312110E+01  -2.0000000000E+01   3.0729169877E+01
H     2.0880312110E+01  -2.0000000000E+01   3.3170830123E+01
H     4.0025607920E+01  -2.0000000000E+01   3.0729106264E+01
H     4.0025607920E+01  -2.0000000000E+01   3.3170893736E+01
C     3.7831463060E+01  -2.0000000000E+01  -7.8100000000E+00
C     3.9061219140E+01  -2.0000000000E+01  -7.1000000000E+00
C     3.9061219140E+01  -2.0000000000E+01  -5.6800000000E+00
C     3.7831463060E+01  -2.0000000000E+01  -4.9700000000E+00
C     3.5371950920E+01  -2.0000000000E+01  -7.8100000000E+00
C     3.6601706990E+01  -2.0000000000E+01  -7.1000000000E+00
C     3.6601706990E+01  -2.0000000000E+01  -5.6800000000E+00
C     3.5371950920E+01  -2.0000000000E+01  -4.9700000000E+00
C     3.2912438770E+01  -2.0000000000E+01  -7.8100000000E+00
C     3.4142194840E+01  -2.0000000000E+01  -7.1000000000E+00
C     3.4142194840E+01  -2.0000000000E+01  -5.6800000000E+00
C     3.2912438770E+01  -2.0000000000E+01  -4.9700000000E+00
C     3.0452926620E+01  -2.0000000000E+01  -7.8100000000E+00
C     3.1682682700E+01  -2.0000000000E+01  -7.1000000000E+00
C     3.1682682700E+01  -2.0000000000E+01  -5.6800000000E+00
C     3.0452926620E+01  -2.0000000000E+01  -4.9700000000E+00
C     2.7993414480E+01  -2.0000000000E+01  -7.8100000000E+00
C     2.9223170550E+01  -2.0000000000E+01  -7.1000000000E+00
C     2.9223170550E+01  -2.0000000000E+01  -5.6800000000E+00
C     2.7993414480E+01  -2.0000000000E+01  -4.9700000000E+00
C     2.5533902330E+01  -2.0000000000E+01  -7.8100000000E+00
C     2.6763658400E+01  -2.0000000000E+01  -7.1000000000E+00
C     2.6763658400E+01  -2.0000000000E+01  -5.6800000000E+00
C     2.5533902330E+01  -2.0000000000E+01  -4.9700000000E+00
C     2.3074390180E+01  -2.0000000000E+01  -7.8100000000E+00
C     2.4304146260E+01  -2.0000000000E+01  -7.1000000000E+00
C     2.4304146260E+01  -2.0000000000E+01  -5.6800000000E+00
C     2.3074390180E+01  -2.0000000000E+01  -4.9700000000E+00
C     2.1844634110E+01  -2.0000000000E+01  -7.1000000000E+00
C     2.1844634110E+01  -2.0000000000E+01  -5.6800000000E+00
H     2.0880312110E+01  -2.0000000000E+01  -7.6108301227E+00
H     2.0880312110E+01  -2.0000000000E+01  -5.1691698770E+00
H     4.0025607920E+01  -2.0000000000E+01  -7.6108937357E+00
H     4.0025607920E+01  -2.0000000000E+01  -5.1691062640E+00
C     3.7831463060E+01  -2.0000000000E+01  -3.5500000000E+00
C     3.9061219140E+01  -2.0000000000E+01  -2.8400000000E+00
C     3.9061219140E+01  -2.0000000000E+01  -1.4200000000E+00
C     3.7831463060E+01  -2.0000000000E+01  -7.1000000000E-01
C     3.5371950920E+01  -2.0000000000E+01  -3.5500000000E+00
C     3.6601706990E+01  -2.0000000000E+01  -2.8400000000E+00
C     3.6601706990E+01  -2.0000000000E+01  -1.4200000000E+00
C     3.5371950920E+01  -2.0000000000E+01  -7.1000000000E-01
C     3.2912438770E+01  -2.0000000000E+01  -3.5500000000E+00
C     3.4142194840E+01  -2.0000000000E+01  -2.8400000000E+00
C     3.4142194840E+01  -2.0000000000E+01  -1.4200000000E+00
C     3.2912438770E+01  -2.0000000000E+01  -7.1000000000E-01
C     3.0452926620E+01  -2.0000000000E+01  -3.5500000000E+00
C     3.1682682700E+01  -2.0000000000E+01  -2.8400000000E+00
C     3.1682682700E+01  -2.0000000000E+01  -1.4200000000E+00
C     3.0452926620E+01  -2.0000000000E+01  -7.1000000000E-01
C     2.7993414480E+01  -2.0000000000E+01  -3.5500000000E+00
C     2.9223170550E+01  -2.0000000000E+01  -2.8400000000E+00
C     2.9223170550E+01  -2.0000000000E+01  -1.4200000000E+00
C     2.7993414480E+01  -2.0000000000E+01  -7.1000000000E-01
C     2.5533902330E+01  -2.0000000000E+01  -3.5500000000E+00
C     2.6763658400E+01  -2.0000000000E+01  -2.8400000000E+00
C     2.6763658400E+01  -2.0000000000E+01  -1.4200000000E+00
C     2.5533902330E+01  -2.0000000000E+01  -7.1000000000E-01
C     2.3074390180E+01  -2.0000000000E+01  -3.5500000000E+00
C     2.4304146260E+01  -2.0000000000E+01  -2.8400000000E+00
C     2.4304146260E+01  -2.0000000000E+01  -1.4200000000E+00
C     2.3074390180E+01  -2.0000000000E+01  -7.1000000000E-01
C     2.1844634110E+01  -2.0000000000E+01  -2.8400000000E+00
C     2.1844634110E+01  -2.0000000000E+01  -1.4200000000E+00
H     2.0880312110E+01  -2.0000000000E+01  -3.3508301227E+00
H     2.0880312110E+01  -2.0000000000E+01  -9.0916987700E-01
H     4.0025607920E+01  -2.0000000000E+01  -3.3508937357E+00
H     4.0025607920E+01  -2.0000000000E+01  -9.0910626400E-01
C     3.7831463060E+01  -2.0000000000E+01  -1.6330000000E+01
C     3.9061219140E+01  -2.0000000000E+01  -1.5620000000E+01
C     3.9061219140E+01  -2.0000000000E+01  -1.4200000000E+01
C     3.7831463060E+01  -2.0000000000E+01  -1.3490000000E+01
C     3.5371950920E+01  -2.0000000000E+01  -1.6330000000E+01
C     3.6601706990E+01  -2.0000000000E+01  -1.5620000000E+01
C     3.6601706990E+01  -2.0000000000E+01  -1.4200000000E+01
C     3.5371950920E+01  -2.0000000000E+01  -1.3490000000E+01
C     3.2912438770E+01  -2.0000000000E+01  -1.6330000000E+01
C     3.4142194840E+01  -2.0000000000E+01  -1.5620000000E+01
C     3.4142194840E+01  -2.0000000000E+01  -1.4200000000E+01
C     3.2912438770E+01  -2.0000000000E+01  -1.3490000000E+01
C     3.0452926620E+01  -2.0000000000E+01  -1.6330000000E+01
C     3.1682682700E+01  -2.0000000000E+01  -1.5620000000E+01
C     3.1682682700E+01  -2.0000000000E+01  -1.4200000000E+01
C     3.0452926620E+01  -2.0000000000E+01  -1.3490000000E+01
C     2.7993414480E+01  -2.0000000000E+01  -1.6330000000E+01
C     2.9223170550E+01  -2.0000000000E+01  -1.5620000000E+01
C     2.9223170550E+01  -2.0000000000E+01  -1.4200000000E+01
C     2.7993414480E+01  -2.0000000000E+01  -1.3490000000E+01
C     2.5533902330E+01  -2.0000000000E+01  -1.6330000000E+01
C     2.6763658400E+01  -2.0000000000E+01  -1.5620000000E+01
C     2.6763658400E+01  -2.0000000000E+01  -1.4200000000E+01
C     2.5533902330E+01  -2.0000000000E+01  -1.3490000000E+01
C     2.3074390180E+01  -2.0000000000E+01  -1.6330000000E+01
C     2.4304146260E+01  -2.0000000000E+01  -1.5620000000E+01
C     2.4304146260E+01  -2.0000000000E+01  -1.4200000000E+01
C     2.3074390180E+01  -2.0000000000E+01  -1.3490000000E+01
C     2.1844634110E+01  -2.0000000000E+01  -1.5620000000E+01
C     2.1844634110E+01  -2.0000000000E+01  -1.4200000000E+01
H     2.0880312110E+01  -2.0000000000E+01  -1.6130830123E+01
H     2.0880312110E+01  -2.0000000000E+01  -1.3689169877E+01
H     4.0025607920E+01  -2.0000000000E+01  -1.6130893736E+01
H     4.0025607920E+01  -2.0000000000E+01  -1.3689106264E+01
C     3.7831463060E+01  -2.0000000000E+01  -1.2070000000E+01
C     3.9061219140E+01  -2.0000000000E+01  -1.1360000000E+01
C     3.9061219140E+01  -2.0000000000E+01  -9.9400000000E+00
C     3.7831463060E+01  -2.0000000000E+01  -9.2300000000E+00
C     3.5371950920E+01  -2.0000000000E+01  -1.2070000000E+01
C     3.6601706990E+01  -2.0000000000E+01  -1.1360000000E+01
C     3.6601706990E+01  -2.0000000000E+01  -9.9400000000E+00
C     3.5371950920E+01  -2.0000000000E+01  -9.2300000000E+00
C     3.2912438770E+01  -2.0000000000E+01  -1.2070000000E+01
C     3.4142194840E+01  -2.0000000000E+01  -1.1360000000E+01
C     3.4142194840E+01  -2.0000000000E+01  -9.9400000000E+00
C     3.2912438770E+01  -2.0000000000E+01  -9.2300000000E+00
C     3.0452926620E+01  -2.0000000000E+01  -1.2070000000E+01
C     3.1682682700E+01  -2.0000000000E+01  -1.1360000000E+01
C     3.1682682700E+01  -2.0000000000E+01  -9.9400000000E+00
C     3.0452926620E+01  -2.0000000000E+01  -9.2300000000E+00
C     2.7993414480E+01  -2.0000000000E+01  -1.2070000000E+01
C     2.9223170550E+01  -2.0000000000E+01  -1.1360000000E+01
C     2.9223170550E+01  -2.0000000000E+01  -9.9400000000E+00
C     2.7993414480E+01  -2.0000000000E+01  -9.2300000000E+00
C     2.5533902330E+01  -2.0000000000E+01  -1.2070000000E+01
C     2.6763658400E+01  -2.0000000000E+01  -1.1360000000E+01
C     2.6763658400E+01  -2.0000000000E+01  -9.9400000000E+00
C     2.5533902330E+01  -2.0000000000E+01  -9.2300000000E+00
C     2.3074390180E+01  -2.0000000000E+01  -1.2070000000E+01
C     2.4304146260E+01  -2.0000000000E+01  -1.1360000000E+01
C     2.4304146260E+01  -2.0000000000E+01  -9.9400000000E+00
C     2.3074390180E+01  -2.0000000000E+01  -9.2300000000E+00
C     2.1844634110E+01  -2.0000000000E+01  -1.1360000000E+01
C     2.1844634110E+01  -2.0000000000E+01  -9.9400000000E+00
H     2.0880312110E+01  -2.0000000000E+01  -1.1870830123E+01
H     2.0880312110E+01  -2.0000000000E+01  -9.4291698770E+00
H     4.0025607920E+01  -2.0000000000E+01  -1.1870893736E+01
H     4.0025607920E+01  -2.0000000000E+01  -9.4291062640E+00
