112

C    -7.1000000000E-01   0.0000000000E+00  -1.2297560734E+00
C    -1.4200000000E+00   0.0000000000E+00   0.0000000000E+00
C    -7.1000000000E-01   0.0000000000E+00   1.2297560734E+00
C    -1.4200000000E+00   0.0000000000E+00   2.4595121467E+00
C     7.1000000000E-01   0.0000000000E+00  -1.2297560734E+00
C     1.4200000000E+00   0.0000000000E+00   0.0000000000E+00
C     7.1000000000E-01   0.0000000000E+00   1.2297560734E+00
C     1.4200000000E+00   0.0000000000E+00   2.4595121467E+00
C     3.5500000000E+00   0.0000000000E+00  -1.2297560734E+00
C     2.8400000000E+00   0.0000000000E+00   0.0000000000E+00
C     3.5500000000E+00   0.0000000000E+00   1.2297560734E+00
C     2.8400000000E+00   0.0000000000E+00   2.4595121467E+00
C     4.9700000000E+00   0.0000000000E+00  -1.2297560734E+00
C     5.6800000000E+00   0.0000000000E+00   0.0000000000E+00
C     4.9700000000E+00   0.0000000000E+00   1.2297560734E+00
C     5.6800000000E+00   0.0000000000E+00   2.4595121467E+00
C     7.8100000000E+00   0.0000000000E+00  -1.2297560734E+00
C     7.1000000000E+00   0.0000000000E+00   0.0000000000E+00
C     7.8100000000E+00   0.0000000000E+00   1.2297560734E+00
C     7.1000000000E+00   0.0000000000E+00   2.4595121467E+00
C     9.2300000000E+00   0.0000000000E+00  -1.2297560734E+00
C     9.9400000000E+00   0.0000000000E+00   0.0000000000E+00
C     9.2300000000E+00   0.0000000000E+00   1.2297560734E+00
C     9.9400000000E+00   0.0000000000E+00   2.4595121467E+00
C     1.2070000000E+01   0.0000000000E+00  -1.2297560734E+00
C     1.1360000000E+01   0.0000000000E+00   0.0000000000E+00
C     1.2070000000E+01   0.0000000000E+00   1.2297560734E+00
C     1.1360000000E+01   0.0000000000E+00   2.4595121467E+00
C     1.3490000000E+01   0.0000000000E+00  -1.2297560734E+00
C     1.4200000000E+01   0.0000000000E+00   0.0000000000E+00
C     1.3490000000E+01   0.0000000000E+00   1.2297560734E+00
C     1.4200000000E+01   0.0000000000E+00   2.4595121467E+00
C     1.6330000000E+01   0.0000000000E+00  -1.2297560734E+00
C     1.5620000000E+01   0.0000000000E+00   0.0000000000E+00
C     1.6330000000E+01   0.0000000000E+00   1.2297560734E+00
C     1.5620000000E+01   0.0000000000E+00   2.4595121467E+00
C     1.7750000000E+01   0.0000000000E+00  -1.2297560734E+00
C     1.8460000000E+01   0.0000000000E+00   0.0000000000E+00
C     1.7750000000E+01   0.0000000000E+00   1.2297560734E+00
C     1.8460000000E+01   0.0000000000E+00   2.4595121467E+00
C     2.0590000000E+01   0.0000000000E+00  -1.2297560734E+00
C     1.9880000000E+01   0.0000000000E+00   0.0000000000E+00
C     2.0590000000E+01   0.0000000000E+00   1.2297560734E+00
C     1.9880000000E+01   0.0000000000E+00   2.4595121467E+00
C     2.2010000000E+01   0.0000000000E+00  -1.2297560734E+00
C     2.2720000000E+01   0.0000000000E+00   0.0000000000E+00
C     2.2010000000E+01   0.0000000000E+00   1.2297560734E+00
C     2.2720000000E+01   0.0000000000E+00   2.4595121467E+00
C     2.4850000000E+01   0.0000000000E+00  -1.2297560734E+00
C     2.4140000000E+01   0.0000000000E+00   0.0000000000E+00
C     2.4850000000E+01   0.0000000000E+00   1.2297560734E+00
C     2.4140000000E+01   0.0000000000E+00   2.4595121467E+00
C     2.6270000000E+01   0.0000000000E+00  -1.2297560734E+00
C     2.6980000000E+01   0.0000000000E+00   0.0000000000E+00
C     2.6270000000E+01   0.0000000000E+00   1.2297560734E+00
C     2.6980000000E+01   0.0000000000E+00   2.4595121467E+00
C     2.9110000000E+01   0.0000000000E+00  -1.2297560734E+00
C     2.8400000000E+01   0.0000000000E+00   0.0000000000E+00
C     2.9110000000E+01   0.0000000000E+00   1.2297560734E+00
C     2.8400000000E+01   0.0000000000E+00   2.4595121467E+00
C     3.0530000000E+01   0.0000000000E+00  -1.2297560734E+00
C     3.1240000000E+01   0.0000000000E+00   0.0000000000E+00
C     3.0530000000E+01   0.0000000000E+00   1.2297560734E+00
C     3.1240000000E+01   0.0000000000E+00   2.4595121467E+00
C     3.3370000000E+01   0.0000000000E+00  -1.2297560734E+00
C     3.2660000000E+01   0.0000000000E+00   0.0000000000E+00
C     3.3370000000E+01   0.0000000000E+00   1.2297560734E+00
C     3.2660000000E+01   0.0000000000E+00   2.4595121467E+00
C     3.4790000000E+01   0.0000000000E+00  -1.2297560734E+00
C     3.5500000000E+01   0.0000000000E+00   0.0000000000E+00
C     3.4790000000E+01   0.0000000000E+00   1.2297560734E+00
C     3.5500000000E+01   0.0000000000E+00   2.4595121467E+00
C     3.7630000000E+01   0.0000000000E+00  -1.2297560734E+00
C     3.6920000000E+01   0.0000000000E+00   0.0000000000E+00
C     3.7630000000E+01   0.0000000000E+00   1.2297560734E+00
C     3.6920000000E+01   0.0000000000E+00   2.4595121467E+00
C     3.9050000000E+01   0.0000000000E+00  -1.2297560734E+00
C     3.9760000000E+01   0.0000000000E+00   0.0000000000E+00
C     3.9050000000E+01   0.0000000000E+00   1.2297560734E+00
C     3.9760000000E+01   0.0000000000E+00   2.4595121467E+00
C     4.1890000000E+01   0.0000000000E+00  -1.2297560734E+00
C     4.1180000000E+01   0.0000000000E+00   0.0000000000E+00
C     4.1890000000E+01   0.0000000000E+00   1.2297560734E+00
C     4.1180000000E+01   0.0000000000E+00   2.4595121467E+00
C     4.3310000000E+01   0.0000000000E+00  -1.2297560734E+00
C     4.4020000000E+01   0.0000000000E+00   0.0000000000E+00
C     4.3310000000E+01   0.0000000000E+00   1.2297560734E+00
C     4.4020000000E+01   0.0000000000E+00   2.4595121467E+00
C     4.6150000000E+01   0.0000000000E+00  -1.2297560734E+00
C     4.5440000000E+01   0.0000000000E+00   0.0000000000E+00
C     4.6150000000E+01   0.0000000000E+00   1.2297560734E+00
C     4.5440000000E+01   0.0000000000E+00   2.4595121467E+00
C     4.7570000000E+01   0.0000000000E+00  -1.2297560734E+00
C     4.8280000000E+01   0.0000000000E+00   0.0000000000E+00
C     4.7570000000E+01   0.0000000000E+00   1.2297560734E+00
C     4.8280000000E+01   0.0000000000E+00   2.4595121467E+00
C    -4.9700000000E+00   0.0000000000E+00  -1.2297560734E+00
C    -5.6800000000E+00   0.0000000000E+00   0.0000000000E+00
C    -4.9700000000E+00   0.0000000000E+00   1.2297560734E+00
C    -5.6800000000E+00   0.0000000000E+00   2.4595121467E+00
C    -3.5500000000E+00   0.0000000000E+00  -1.2297560734E+00
C    -2.8400000000E+00   0.0000000000E+00   0.0000000000E+00
C    -3.5500000000E+00   0.0000000000E+00   1.2297560734E+00
C    -2.8400000000E+00   0.0000000000E+00   2.4595121467E+00
C    -9.2300000000E+00   0.0000000000E+00  -1.2297560734E+00
C    -9.9400000000E+00   0.0000000000E+00   0.0000000000E+00
C    -9.2300000000E+00   0.0000000000E+00   1.2297560734E+00
C    -9.9400000000E+00   0.0000000000E+00   2.4595121467E+00
C    -7.8100000000E+00   0.0000000000E+00  -1.2297560734E+00
C    -7.1000000000E+00   0.0000000000E+00   0.0000000000E+00
C    -7.8100000000E+00   0.0000000000E+00   1.2297560734E+00
C    -7.1000000000E+00   0.0000000000E+00   2.4595121467E+00
