172

C    -2.4267882594E+01  -1.6109200794E+01   9.9352641109E-17
C    -2.4267810720E+01  -1.8580717564E+01   9.9352641109E-17
C    -2.3554453094E+01  -1.4873421660E+01   9.9352641109E-17
C    -2.3554381221E+01  -1.7344938431E+01   9.9352641109E-17
C    -2.3554309347E+01  -1.9816455201E+01   9.9352641109E-17
C    -2.2127522221E+01  -1.4873380164E+01   9.9352641109E-17
C    -2.2127450348E+01  -1.7344896935E+01   9.9352641109E-17
C    -2.2127378475E+01  -1.9816413705E+01   9.9352641109E-17
C    -2.1414020848E+01  -1.6109117801E+01   9.9352641109E-17
C    -2.1413948975E+01  -1.8580634572E+01   9.9352641109E-17
C    -1.9987089975E+01  -1.6109076305E+01   9.9352641109E-17
C    -1.9987018102E+01  -1.8580593076E+01   9.9352641109E-17
C    -1.9273660476E+01  -1.4873297172E+01   9.9352641109E-17
C    -1.9273588602E+01  -1.7344813943E+01   9.9352641109E-17
C    -1.9273516729E+01  -1.9816330713E+01   9.9352641109E-17
C    -1.7847017096E+01  -4.9871885936E+00   9.9352641109E-17
C    -1.7846945223E+01  -7.4587053642E+00   9.9352641109E-17
C    -1.7846873350E+01  -9.9302221347E+00   9.9352641109E-17
C    -1.7846801476E+01  -1.2401738905E+01   9.9352641109E-17
C    -1.7846729603E+01  -1.4873255676E+01   9.9352641109E-17
C    -1.7846657730E+01  -1.7344772446E+01   9.9352641109E-17
C    -1.7846585856E+01  -1.9816289217E+01   9.9352641109E-17
C    -1.7133587597E+01  -3.7514094603E+00   9.9352641109E-17
C    -1.7133515723E+01  -6.2229262308E+00   9.9352641109E-17
C    -1.7133443850E+01  -8.6944430014E+00   9.9352641109E-17
C    -1.7133371977E+01  -1.1165959772E+01   9.9352641109E-17
C    -1.7133300103E+01  -1.3637476543E+01   9.9352641109E-17
C    -1.7133228230E+01  -1.6108993313E+01   9.9352641109E-17
C    -1.7133156356E+01  -1.8580510084E+01   9.9352641109E-17
C    -1.5706656724E+01  -3.7513679642E+00   9.9352641109E-17
C    -1.5706584850E+01  -6.2228847348E+00   9.9352641109E-17
C    -1.5706512977E+01  -8.6944015053E+00   9.9352641109E-17
C    -1.5706441104E+01  -1.1165918276E+01   9.9352641109E-17
C    -1.5706369230E+01  -1.3637435046E+01   9.9352641109E-17
C    -1.5706297357E+01  -1.6108951817E+01   9.9352641109E-17
C    -1.5706225484E+01  -1.8580468588E+01   9.9352641109E-17
C    -1.4993155351E+01  -4.9871056014E+00   9.9352641109E-17
C    -1.4993083477E+01  -7.4586223720E+00   9.9352641109E-17
C    -1.4993011604E+01  -9.9301391426E+00   9.9352641109E-17
C    -1.4992939731E+01  -1.2401655913E+01   9.9352641109E-17
C    -1.4992867857E+01  -1.4873172684E+01   9.9352641109E-17
C    -1.4992795984E+01  -1.7344689454E+01   9.9352641109E-17
C    -1.4992724111E+01  -1.9816206225E+01   9.9352641109E-17
C    -1.3565936985E+01  -1.4873131188E+01   9.9352641109E-17
C    -1.3565865111E+01  -1.7344647958E+01   9.9352641109E-17
C    -1.3565793238E+01  -1.9816164729E+01   9.9352641109E-17
C    -1.2852435611E+01  -1.6108868825E+01   9.9352641109E-17
C    -1.2852363738E+01  -1.8580385595E+01   9.9352641109E-17
C    -1.1425504739E+01  -1.6108827329E+01   9.9352641109E-17
C    -1.1425432865E+01  -1.8580344099E+01   9.9352641109E-17
C    -1.0712075239E+01  -1.4873048195E+01   9.9352641109E-17
C    -1.0712003366E+01  -1.7344564966E+01   9.9352641109E-17
C    -1.0711931492E+01  -1.9816081737E+01   9.9352641109E-17
C    -9.2851443662E+00  -1.4873006699E+01   9.9352641109E-17
C    -9.2850724928E+00  -1.7344523470E+01   9.9352641109E-17
C    -9.2850006195E+00  -1.9816040240E+01   9.9352641109E-17
C    -8.5716429931E+00  -1.6108744337E+01   9.9352641109E-17
C    -8.5715711198E+00  -1.8580261107E+01   9.9352641109E-17
C    -7.1447121203E+00  -1.6108702840E+01   9.9352641109E-17
C    -7.1446402470E+00  -1.8580219611E+01   9.9352641109E-17
C    -6.4312826206E+00  -1.4872923707E+01   9.9352641109E-17
C    -6.4312107472E+00  -1.7344440478E+01   9.9352641109E-17
C    -6.4311388739E+00  -1.9815957248E+01   9.9352641109E-17
C    -5.0043517478E+00  -1.4872882211E+01   9.9352641109E-17
C    -5.0042798745E+00  -1.7344398982E+01   9.9352641109E-17
C    -5.0042080011E+00  -1.9815915752E+01   9.9352641109E-17
C    -4.2908503747E+00  -1.6108619848E+01   9.9352641109E-17
C    -4.2907785014E+00  -1.8580136619E+01   9.9352641109E-17
C    -2.8639195019E+00  -1.6108578352E+01   9.9352641109E-17
C    -2.8638476286E+00  -1.8580095123E+01   9.9352641109E-17
C    -2.1504900022E+00  -1.4872799219E+01   9.9352641109E-17
C    -2.1504181289E+00  -1.7344315989E+01   9.9352641109E-17
C    -2.1503462555E+00  -1.9815832760E+01   9.9352641109E-17
C    -7.2355912942E-01  -1.4872757723E+01   9.9352641109E-17
C    -7.2348725608E-01  -1.7344274493E+01   9.9352641109E-17
C    -7.2341538274E-01  -1.9815791264E+01   9.9352641109E-17
C    -1.0057756358E-02  -1.6108495360E+01   9.9352641109E-17
C    -9.9858830189E-03  -1.8580012131E+01   9.9352641109E-17
C     1.4168731164E+00  -1.6108578352E+01   9.9352641109E-17
C     1.4169449898E+00  -1.8580095123E+01   9.9352641109E-17
C     2.1303026162E+00  -1.4872799219E+01   9.9352641109E-17
C     2.1303744895E+00  -1.7344315989E+01   9.9352641109E-17
C     2.1304463628E+00  -1.9815832760E+01   9.9352641109E-17
C     3.5572334889E+00  -1.4872757723E+01   9.9352641109E-17
C     3.5573053623E+00  -1.7344274493E+01   9.9352641109E-17
C     3.5573772356E+00  -1.9815791264E+01   9.9352641109E-17
C     4.2707348620E+00  -1.6108495360E+01   9.9352641109E-17
C     4.2708067353E+00  -1.8580012131E+01   9.9352641109E-17
C     5.6976657348E+00  -1.6108578352E+01   9.9352641109E-17
C     5.6977376081E+00  -1.8580095123E+01   9.9352641109E-17
C     6.4110952345E+00  -1.4872799219E+01   9.9352641109E-17
C     6.4111671079E+00  -1.7344315989E+01   9.9352641109E-17
C     6.4112389812E+00  -1.9815832760E+01   9.9352641109E-17
C     7.8380261073E+00  -1.4872757723E+01   9.9352641109E-17
C     7.8380979807E+00  -1.7344274493E+01   9.9352641109E-17
C     7.8381698540E+00  -1.9815791264E+01   9.9352641109E-17
C     8.5515274804E+00  -1.6108495360E+01   9.9352641109E-17
C     8.5515993537E+00  -1.8580012131E+01   9.9352641109E-17
C     9.9784583532E+00  -1.6108578352E+01   9.9352641109E-17
C     9.9785302265E+00  -1.8580095123E+01   9.9352641109E-17
C     1.0691887853E+01  -1.4872799219E+01   9.9352641109E-17
C     1.0691959726E+01  -1.7344315989E+01   9.9352641109E-17
C     1.0692031600E+01  -1.9815832760E+01   9.9352641109E-17
C     1.2118818726E+01  -1.4872757723E+01   9.9352641109E-17
C     1.2118890599E+01  -1.7344274493E+01   9.9352641109E-17
C     1.2118962472E+01  -1.9815791264E+01   9.9352641109E-17
C     1.2832320099E+01  -1.6108495360E+01   9.9352641109E-17
C     1.2832391972E+01  -1.8580012131E+01   9.9352641109E-17
C    -1.7847088970E+01  -2.5156718231E+00   9.9352641109E-17
C    -1.4993227224E+01  -2.5155888309E+00   9.9352641109E-17
C    -1.7133659470E+01  -1.2798926897E+00   9.9352641109E-17
C    -1.5706728597E+01  -1.2798511936E+00   9.9352641109E-17
C    -1.7847088970E+01  -4.4155052492E-02   9.9352641109E-17
C    -1.4993227224E+01  -4.4072060310E-02   9.9352641109E-17
C    -1.7133659470E+01   1.1916240808E+00   9.9352641109E-17
C    -1.5706728597E+01   1.1916655769E+00   9.9352641109E-17
C    -1.7847088970E+01   2.4273617181E+00   9.9352641109E-17
C    -1.4993227224E+01   2.4274447103E+00   9.9352641109E-17
C    -1.7133659470E+01   3.6631408514E+00   9.9352641109E-17
C    -1.5706728597E+01   3.6631823475E+00   9.9352641109E-17
C    -1.7847088970E+01   4.8988784886E+00   9.9352641109E-17
C    -1.4993227224E+01   4.8989614808E+00   9.9352641109E-17
C    -1.7133659470E+01   6.1346576220E+00   9.9352641109E-17
C    -1.5706728597E+01   6.1346991180E+00   9.9352641109E-17
C    -1.7847088970E+01   7.3703952592E+00   9.9352641109E-17
C    -1.4993227224E+01   7.3704782514E+00   9.9352641109E-17
C    -1.7133659470E+01   8.6061743925E+00   9.9352641109E-17
C    -1.5706728597E+01   8.6062158886E+00   9.9352641109E-17
C    -1.7847088970E+01   9.8419120297E+00   9.9352641109E-17
C    -1.4993227224E+01   9.8419950219E+00   9.9352641109E-17
C    -1.7133659470E+01   1.1077691163E+01   9.9352641109E-17
C    -1.5706728597E+01   1.1077732659E+01   9.9352641109E-17
C    -2.5694741593E+01  -1.8580759060E+01   9.9352641109E-17
C    -2.5694813467E+01  -1.6109242290E+01   9.9352641109E-17
C    -2.6408171093E+01  -1.9816538194E+01   9.9352641109E-17
C    -2.6408242966E+01  -1.7345021423E+01   9.9352641109E-17
C    -2.6408314840E+01  -1.4873504652E+01   9.9352641109E-17
C    -2.7835101966E+01  -1.9816579690E+01   9.9352641109E-17
C    -2.7835173839E+01  -1.7345062919E+01   9.9352641109E-17
C    -2.7835245712E+01  -1.4873546148E+01   9.9352641109E-17
C    -2.8548603339E+01  -1.8580842052E+01   9.9352641109E-17
C    -2.8548675212E+01  -1.6109325282E+01   9.9352641109E-17
C    -2.9975534212E+01  -1.8580759060E+01   9.9352641109E-17
C    -2.9975606085E+01  -1.6109242290E+01   9.9352641109E-17
C    -3.0688963711E+01  -1.9816538194E+01   9.9352641109E-17
C    -3.0689035585E+01  -1.7345021423E+01   9.9352641109E-17
C    -3.0689107458E+01  -1.4873504652E+01   9.9352641109E-17
C    -3.2115894584E+01  -1.9816579690E+01   9.9352641109E-17
C    -3.2115966457E+01  -1.7345062919E+01   9.9352641109E-17
C    -3.2116038331E+01  -1.4873546148E+01   9.9352641109E-17
C    -3.2829395957E+01  -1.8580842052E+01   9.9352641109E-17
C    -3.2829467831E+01  -1.6109325282E+01   9.9352641109E-17
C    -3.4256326830E+01  -1.8580759060E+01   9.9352641109E-17
C    -3.4256398703E+01  -1.6109242290E+01   9.9352641109E-17
C    -3.4969756330E+01  -1.9816538194E+01   9.9352641109E-17
C    -3.4969828203E+01  -1.7345021423E+01   9.9352641109E-17
C    -3.4969900076E+01  -1.4873504652E+01   9.9352641109E-17
C    -3.6396687202E+01  -1.9816579690E+01   9.9352641109E-17
C    -3.6396759076E+01  -1.7345062919E+01   9.9352641109E-17
C    -3.6396830949E+01  -1.4873546148E+01   9.9352641109E-17
C    -3.7110188576E+01  -1.8580842052E+01   9.9352641109E-17
C    -3.7110260449E+01  -1.6109325282E+01   9.9352641109E-17
C    -3.8537119448E+01  -1.8580759060E+01   9.9352641109E-17
C    -3.8537191322E+01  -1.6109242290E+01   9.9352641109E-17
C    -3.9250548948E+01  -1.9816538194E+01   9.9352641109E-17
C    -3.9250620821E+01  -1.7345021423E+01   9.9352641109E-17
C    -3.9250692695E+01  -1.4873504652E+01   9.9352641109E-17
C    -4.0677479821E+01  -1.9816579690E+01   9.9352641109E-17
C    -4.0677551694E+01  -1.7345062919E+01   9.9352641109E-17
C    -4.0677623568E+01  -1.4873546148E+01   9.9352641109E-17
C    -4.1390981194E+01  -1.8580842052E+01   9.9352641109E-17
C    -4.1391053067E+01  -1.6109325282E+01   9.9352641109E-17
