80

H     1.3000000000E+01   0.0000000000E+00   0.0000000000E+00
H     1.3000000000E+01   1.0000000000E+00   0.0000000000E+00
H     1.3000000000E+01   2.0000000000E+00   0.0000000000E+00
H     1.3000000000E+01   3.0000000000E+00   0.0000000000E+00
H     1.4000000000E+01   0.0000000000E+00   0.0000000000E+00
H     1.4000000000E+01   1.0000000000E+00   0.0000000000E+00
H     1.4000000000E+01   2.0000000000E+00   0.0000000000E+00
H     1.4000000000E+01   3.0000000000E+00   0.0000000000E+00
H     1.5000000000E+01   0.0000000000E+00   0.0000000000E+00
H     1.5000000000E+01   1.0000000000E+00   0.0000000000E+00
H     1.5000000000E+01   2.0000000000E+00   0.0000000000E+00
H     1.5000000000E+01   3.0000000000E+00   0.0000000000E+00
H     1.6000000000E+01   0.0000000000E+00   0.0000000000E+00
H     1.6000000000E+01   1.0000000000E+00   0.0000000000E+00
H     1.6000000000E+01   2.0000000000E+00   0.0000000000E+00
H     1.6000000000E+01   3.0000000000E+00   0.0000000000E+00
H     1.7000000000E+01   0.0000000000E+00   0.0000000000E+00
H     1.7000000000E+01   1.0000000000E+00   0.0000000000E+00
H     1.7000000000E+01   2.0000000000E+00   0.0000000000E+00
H     1.7000000000E+01   3.0000000000E+00   0.0000000000E+00
H     1.8000000000E+01   0.0000000000E+00   0.0000000000E+00
H     1.8000000000E+01   1.0000000000E+00   0.0000000000E+00
H     1.8000000000E+01   2.0000000000E+00   0.0000000000E+00
H     1.8000000000E+01   3.0000000000E+00   0.0000000000E+00
H     1.9000000000E+01   0.0000000000E+00   0.0000000000E+00
H     1.9000000000E+01   1.0000000000E+00   0.0000000000E+00
H     1.9000000000E+01   2.0000000000E+00   0.0000000000E+00
H     1.9000000000E+01   3.0000000000E+00   0.0000000000E+00
H     2.0000000000E+01   0.0000000000E+00   0.0000000000E+00
H     2.0000000000E+01   1.0000000000E+00   0.0000000000E+00
H     2.0000000000E+01   2.0000000000E+00   0.0000000000E+00
H     2.0000000000E+01   3.0000000000E+00   0.0000000000E+00
H     2.1000000000E+01   0.0000000000E+00   0.0000000000E+00
H     2.1000000000E+01   1.0000000000E+00   0.0000000000E+00
H     2.1000000000E+01   2.0000000000E+00   0.0000000000E+00
H     2.1000000000E+01   3.0000000000E+00   0.0000000000E+00
H     2.2000000000E+01   0.0000000000E+00   0.0000000000E+00
H     2.2000000000E+01   1.0000000000E+00   0.0000000000E+00
H     2.2000000000E+01   2.0000000000E+00   0.0000000000E+00
H     2.2000000000E+01   3.0000000000E+00   0.0000000000E+00
H     2.3000000000E+01   0.0000000000E+00   0.0000000000E+00
H     2.3000000000E+01   1.0000000000E+00   0.0000000000E+00
H     2.3000000000E+01   2.0000000000E+00   0.0000000000E+00
H     2.3000000000E+01   3.0000000000E+00   0.0000000000E+00
H     2.4000000000E+01   0.0000000000E+00   0.0000000000E+00
H     2.4000000000E+01   1.0000000000E+00   0.0000000000E+00
H     2.4000000000E+01   2.0000000000E+00   0.0000000000E+00
H     2.4000000000E+01   3.0000000000E+00   0.0000000000E+00
H     2.5000000000E+01   0.0000000000E+00   0.0000000000E+00
H     2.5000000000E+01   1.0000000000E+00   0.0000000000E+00
H     2.5000000000E+01   2.0000000000E+00   0.0000000000E+00
H     2.5000000000E+01   3.0000000000E+00   0.0000000000E+00
H     2.6000000000E+01   0.0000000000E+00   0.0000000000E+00
H     2.6000000000E+01   1.0000000000E+00   0.0000000000E+00
H     2.6000000000E+01   2.0000000000E+00   0.0000000000E+00
H     2.6000000000E+01   3.0000000000E+00   0.0000000000E+00
H     2.7000000000E+01   0.0000000000E+00   0.0000000000E+00
H     2.7000000000E+01   1.0000000000E+00   0.0000000000E+00
H     2.7000000000E+01   2.0000000000E+00   0.0000000000E+00
H     2.7000000000E+01   3.0000000000E+00   0.0000000000E+00
H     2.8000000000E+01   0.0000000000E+00   0.0000000000E+00
H     2.8000000000E+01   1.0000000000E+00   0.0000000000E+00
H     2.8000000000E+01   2.0000000000E+00   0.0000000000E+00
H     2.8000000000E+01   3.0000000000E+00   0.0000000000E+00
H     1.1000000000E+01   0.0000000000E+00   0.0000000000E+00
H     1.1000000000E+01   1.0000000000E+00   0.0000000000E+00
H     1.1000000000E+01   2.0000000000E+00   0.0000000000E+00
H     1.1000000000E+01   3.0000000000E+00   0.0000000000E+00
H     1.2000000000E+01   0.0000000000E+00   0.0000000000E+00
H     1.2000000000E+01   1.0000000000E+00   0.0000000000E+00
H     1.2000000000E+01   2.0000000000E+00   0.0000000000E+00
H     1.2000000000E+01   3.0000000000E+00   0.0000000000E+00
H     9.0000000000E+00   0.0000000000E+00   0.0000000000E+00
H     9.0000000000E+00   1.0000000000E+00   0.0000000000E+00
H     9.0000000000E+00   2.0000000000E+00   0.0000000000E+00
H     9.0000000000E+00   3.0000000000E+00   0.0000000000E+00
H     1.0000000000E+01   0.0000000000E+00   0.0000000000E+00
H     1.0000000000E+01   1.0000000000E+00   0.0000000000E+00
H     1.0000000000E+01   2.0000000000E+00   0.0000000000E+00
H     1.0000000000E+01   3.0000000000E+00   0.0000000000E+00
